3000
i = 0, time = 0.000 E = 0.000
Si 28 4 28
Si 24 32 32
Si 30 2 28
Si 0 28 20
Si 20 16 26
Si 18 12 14
Si 26 8 16
Si 24 30 32
Si 4 12 20
Si 6 14 14
Si 30 24 28
Si 8 28 24
Si 16 12 32
Si 8 6 18
Si 4 32 12
Si 22 24 28
Si 26 12 18
Si 4 16 0
Si 6 0 20
Si 8 18 8
Si 14 32 20
Si 20 28 30
Si 10 10 12
Si 2 22 16
Si 30 0 18
Si 6 16 2
Si 30 20 24
Si 14 12 4
Si 26 28 6
Si 28 10 30
Si 18 24 26
Si 32 28 32
Si 24 2 4
Si 18 20 0
Si 32 28 6
Si 24 2 8
Si 10 16 28
Si 18 28 20
Si 4 22 26
Si 20 26 4
Si 10 8 22
Si 26 10 6
Si 24 30 6
Si 14 18 16
Si 14 28 16
Si 12 18 28
Si 14 16 16
Si 6 16 0
Si 0 8 8
Si 16 8 30
Si 32 22 32
Si 30 16 0
Si 4 30 28
Si 12 30 20
Si 22 32 10
Si 14 32 2
Si 14 14 16
Si 28 30 18
Si 10 2 32
Si 12 16 28
Si 22 8 32
Si 24 20 2
Si 4 14 14
Si 24 6 14
Si 12 26 22
Si 4 12 4
Si 6 30 4
Si 24 10 4
Si 18 14 0
Si 18 22 18
Si 16 20 6
Si 26 12 4
Si 8 26 6
Si 18 10 22
Si 18 22 20
Si 26 10 24
Si 10 20 30
Si 18 18 28
Si 6 10 0
Si 32 4 24
Si 6 4 20
Si 2 18 12
Si 18 18 26
Si 0 14 12
Si 22 26 18
Si 0 26 2
Si 14 4 28
Si 20 24 4
Si 16 4 6
Si 28 6 24
Si 22 26 2
Si 8 2 10
Si 6 12 0
Si 28 26 8
Si 10 14 4
Si 10 2 0
Si 8 26 26
Si 18 14 10
Si 6 2 20
Si 12 32 24
Si 24 32 26
Si 12 28 10
Si 26 0 0
Si 32 16 4
Si 12 16 4
Si 2 14 20
Si 22 12 2
Si 20 26 26
Si 12 14 4
Si 10 6 10
Si 4 4 18
Si 30 18 4
Si 10 10 0
Si 16 0 10
Si 18 32 30
Si 14 28 0
Si 18 12 26
Si 14 20 24
Si 8 24 10
Si 10 12 8
Si 32 6 6
Si 14 14 0
Si 8 18 26
Si 32 22 4
Si 18 12 24
Si 6 2 6
Si 32 12 12
Si 8 12 12
Si 10 12 6
Si 10 32 30
Si 4 32 26
Si 22 14 24
Si 12 2 14
Si 16 20 8
Si 26 16 0
Si 18 0 4
Si 24 32 8
Si 4 22 30
Si 0 22 6
Si 20 26 14
Si 30 18 24
Si 18 32 8
Si 14 12 26
Si 8 16 18
Si 24 22 10
Si 20 10 28
Si 26 0 16
Si 18 8 14
Si 24 26 6
Si 26 4 0
Si 20 0 14
Si 4 18 26
Si 2 16 16
Si 24 24 24
Si 16 12 28
Si 12 6 2
Si 32 0 4
Si 8 6 12
Si 28 6 22
Si 2 14 26
Si 18 24 22
Si 18 20 12
Si 18 8 4
Si 20 6 28
Si 28 30 6
Si 14 30 2
Si 8 32 2
Si 6 14 6
Si 26 8 32
Si 32 14 14
Si 30 10 8
Si 22 16 6
Si 4 2 18
Si 30 28 16
Si 10 8 10
Si 12 32 6
Si 20 18 8
Si 30 10 10
Si 26 12 14
Si 10 18 16
Si 32 28 12
Si 4 0 28
Si 26 22 30
Si 0 16 12
Si 8 6 24
Si 20 14 18
Si 10 26 18
Si 10 26 4
Si 2 28 18
Si 26 8 24
Si 6 28 14
Si 0 0 4
Si 0 16 18
Si 8 22 12
Si 26 4 10
Si 12 24 16
Si 4 32 24
Si 4 20 24
Si 26 22 18
Si 24 22 26
Si 2 30 22
Si 16 18 2
Si 32 6 16
Si 16 2 6
Si 20 28 4
Si 26 30 10
Si 6 16 14
Si 20 0 18
Si 10 14 30
Si 26 32 8
Si 28 0 2
Si 32 0 20
Si 28 4 30
Si 30 2 24
Si 4 12 16
Si 16 14 6
Si 0 20 8
Si 32 10 30
Si 22 14 2
Si 12 0 24
Si 32 30 6
Si 4 30 20
Si 32 26 30
Si 8 12 10
Si 28 32 12
Si 12 22 8
Si 0 14 8
Si 24 8 22
Si 4 30 6
Si 6 22 16
Si 14 16 10
Si 0 30 28
Si 0 24 16
Si 6 20 0
Si 0 20 20
Si 16 28 4
Si 20 32 16
Si 0 8 24
Si 16 30 20
Si 16 24 32
Si 12 18 30
Si 14 18 24
Si 30 28 10
Si 20 16 0
Si 18 20 6
Si 16 28 20
Si 26 28 26
Si 4 24 20
Si 20 14 10
Si 28 16 16
Si 10 14 2
Si 8 20 16
Si 14 24 0
Si 16 6 26
Si 0 6 14
Si 28 24 24
Si 26 0 24
Si 14 32 24
Si 30 14 14
Si 22 28 10
Si 26 4 20
Si 32 28 20
Si 8 24 28
Si 0 32 24
Si 28 22 6
Si 10 24 24
Si 26 30 28
Si 6 12 30
Si 2 28 22
Si 28 12 32
Si 24 12 30
Si 28 26 14
Si 14 10 2
Si 12 22 14
Si 30 22 10
Si 28 24 2
Si 32 18 12
Si 32 14 18
Si 30 6 16
Si 16 8 16
Si 26 16 10
Si 0 26 0
Si 32 22 18
Si 6 28 32
Si 0 32 14
Si 28 16 18
Si 22 24 2
Si 20 12 24
Si 18 28 4
Si 32 10 28
Si 2 28 24
Si 26 10 22
Si 26 24 32
Si 8 22 32
Si 22 20 18
Si 0 26 20
Si 8 2 20
Si 6 4 2
Si 4 26 20
Si 2 2 26
Si 20 22 30
Si 6 32 0
Si 2 4 26
Si 20 26 2
Si 30 22 16
Si 16 30 6
Si 4 12 0
Si 8 14 26
Si 12 10 24
Si 8 28 2
Si 8 30 18
Si 18 22 0
Si 18 30 24
Si 0 18 4
Si 0 32 22
Si 14 4 4
Si 24 20 24
Si 12 24 0
Si 22 12 4
Si 6 30 22
Si 6 4 30
Si 8 2 14
Si 2 6 8
Si 32 18 10
Si 28 14 0
Si 20 30 2
Si 24 12 6
Si 14 16 26
Si 4 26 6
Si 24 22 18
Si 16 16 20
Si 24 10 10
Si 16 8 2
Si 8 32 26
Si 20 20 10
Si 12 18 20
Si 6 8 22
Si 4 18 12
Si 22 14 0
Si 24 16 28
Si 20 6 20
Si 4 20 8
Si 12 10 32
Si 32 2 12
Si 14 30 10
Si 20 30 20
Si 32 12 8
Si 22 22 30
Si 2 28 4
Si 2 8 30
Si 16 22 32
Si 32 20 26
Si 16 22 8
Si 30 16 24
Si 2 26 4
Si 12 0 16
Si 4 28 20
Si 2 32 8
Si 2 16 30
Si 26 2 10
Si 30 4 24
Si 6 18 12
Si 2 16 10
Si 20 22 22
Si 10 18 20
Si 20 12 2
Si 32 26 24
Si 14 14 4
Si 14 26 28
Si 30 2 16
Si 4 14 18
Si 4 0 0
Si 32 22 30
Si 4 24 12
Si 8 16 10
Si 24 32 16
Si 6 22 18
Si 28 2 4
Si 16 10 20
Si 30 2 14
Si 22 22 14
Si 22 6 16
Si 22 6 26
Si 22 24 24
Si 30 0 4
Si 26 28 10
Si 32 18 18
Si 32 10 10
Si 14 14 18
Si 32 8 18
Si 32 4 12
Si 30 26 8
Si 26 22 32
Si 26 2 6
Si 22 22 22
Si 32 2 30
Si 32 32 14
Si 6 18 14
Si 24 0 4
Si 0 18 24
Si 12 28 8
Si 6 0 18
Si 10 6 24
Si 32 18 4
Si 18 0 22
Si 22 32 24
Si 28 20 0
Si 6 26 28
Si 14 12 12
Si 32 18 32
Si 10 32 26
Si 12 10 14
Si 14 24 12
Si 22 16 20
Si 22 26 10
Si 16 32 10
Si 2 18 8
Si 26 8 20
Si 20 6 32
Si 18 0 6
Si 22 32 14
Si 26 26 12
Si 24 4 8
Si 12 14 22
Si 30 8 26
Si 26 26 32
Si 14 28 18
Si 0 6 28
Si 2 4 18
Si 32 8 32
Si 24 18 6
Si 26 6 28
Si 20 0 4
Si 32 28 28
Si 14 30 4
Si 24 12 4
Si 28 12 0
Si 28 24 0
Si 14 32 8
Si 30 20 16
Si 16 26 14
Si 2 6 10
Si 28 32 24
Si 16 2 30
Si 28 24 22
Si 16 8 14
Si 0 10 20
Si 20 18 32
Si 20 32 0
Si 14 26 14
Si 28 30 20
Si 8 30 12
Si 4 2 30
Si 14 8 28
Si 6 0 30
Si 22 18 22
Si 0 2 32
Si 0 4 30
Si 20 26 6
Si 4 28 32
Si 10 12 28
Si 8 16 30
Si 14 14 6
Si 24 8 18
Si 22 18 14
Si 32 24 20
Si 22 4 30
Si 10 26 12
Si 10 28 4
Si 18 2 4
Si 26 20 12
Si 10 4 26
Si 28 4 26
Si 28 6 0
Si 8 8 6
Si 28 26 4
Si 18 4 18
Si 2 20 30
Si 30 12 30
Si 8 18 24
Si 10 8 20
Si 4 6 24
Si 12 28 22
Si 20 32 22
Si 20 18 2
Si 24 20 18
Si 8 8 18
Si 8 18 14
Si 28 22 12
Si 20 26 22
Si 10 30 16
Si 16 20 0
Si 32 24 18
Si 16 18 16
Si 14 14 14
Si 2 10 22
Si 6 24 6
Si 22 22 28
Si 32 12 26
Si 18 18 16
Si 0 20 22
Si 16 6 0
Si 30 20 6
Si 22 4 8
Si 6 16 18
Si 6 2 30
Si 4 8 2
Si 10 24 18
Si 0 18 32
Si 14 6 20
Si 12 6 14
Si 10 10 18
Si 2 16 32
Si 32 6 12
Si 0 16 6
Si 4 6 10
Si 32 4 30
Si 2 14 14
Si 22 14 20
Si 30 14 12
Si 6 8 6
Si 6 8 16
Si 16 28 28
Si 32 20 32
Si 4 14 2
Si 28 14 12
Si 10 32 24
Si 2 4 22
Si 2 6 22
Si 2 6 16
Si 4 8 16
Si 10 2 6
Si 8 20 10
Si 6 16 28
Si 30 6 14
Si 8 26 14
Si 18 10 30
Si 30 18 12
Si 28 8 30
Si 24 16 14
Si 14 18 26
Si 12 28 14
Si 28 28 32
Si 20 22 32
Si 32 20 30
Si 22 16 18
Si 20 16 6
Si 10 2 16
Si 18 24 20
Si 4 4 22
Si 0 4 20
Si 30 10 6
Si 0 10 22
Si 8 2 4
Si 26 20 10
Si 20 16 2
Si 8 24 32
Si 12 18 12
Si 22 32 2
Si 20 2 30
Si 18 14 18
Si 20 30 4
Si 0 30 14
Si 24 14 26
Si 10 28 22
Si 28 28 2
Si 8 22 6
Si 18 8 2
Si 6 30 0
Si 28 16 2
Si 24 18 30
Si 30 22 24
Si 2 18 0
Si 28 14 20
Si 10 28 6
Si 24 16 8
Si 22 4 4
Si 24 4 24
Si 16 30 30
Si 2 20 8
Si 12 10 18
Si 18 12 18
Si 24 0 14
Si 6 10 4
Si 28 18 26
Si 22 2 12
Si 16 2 28
Si 10 8 12
Si 2 2 2
Si 26 32 30
Si 16 8 8
Si 10 14 8
Si 20 8 20
Si 28 30 4
Si 26 10 16
Si 14 20 0
Si 28 32 18
Si 16 18 32
Si 2 28 14
Si 0 4 4
Si 12 20 10
Si 32 30 20
Si 16 0 0
Si 30 12 22
Si 2 20 16
Si 32 14 0
Si 12 28 26
Si 22 32 12
Si 32 26 32
Si 0 16 8
Si 24 12 2
Si 14 32 0
Si 16 12 8
Si 0 0 10
Si 22 6 12
Si 4 14 22
Si 32 28 2
Si 14 4 26
Si 22 20 22
Si 8 6 28
Si 12 28 6
Si 14 30 0
Si 20 24 8
Si 14 12 28
Si 22 6 6
Si 32 18 24
Si 22 4 2
Si 16 20 32
Si 28 6 8
Si 16 10 26
Si 12 14 12
Si 0 2 22
Si 18 26 8
Si 14 18 8
Si 20 10 2
Si 30 26 2
Si 30 14 22
Si 20 0 2
Si 16 2 10
Si 16 12 24
Si 10 30 2
Si 2 12 22
Si 14 26 8
Si 24 26 28
Si 30 24 22
Si 8 32 28
Si 8 14 22
Si 18 30 0
Si 2 32 14
Si 8 18 16
Si 32 4 16
Si 6 30 12
Si 14 18 14
Si 18 28 28
Si 24 8 10
Si 30 6 2
Si 2 4 0
Si 12 16 2
Si 16 24 18
Si 22 8 2
Si 0 32 32
Si 20 8 16
Si 22 12 26
Si 18 26 26
Si 8 18 0
Si 22 32 20
Si 14 28 4
Si 8 4 32
Si 24 18 2
Si 4 4 14
Si 24 28 12
Si 26 26 26
Si 10 0 4
Si 6 20 18
Si 10 30 22
Si 24 12 24
Si 20 2 32
Si 12 4 14
Si 30 30 32
Si 8 26 30
Si 18 24 30
Si 2 24 10
Si 4 16 8
Si 32 28 4
Si 28 14 4
Si 22 30 2
Si 2 4 4
Si 6 32 12
Si 18 12 8
Si 12 2 2
Si 28 32 16
Si 12 4 8
Si 30 24 32
Si 32 0 10
Si 8 10 32
Si 20 28 8
Si 14 12 22
Si 2 14 32
Si 0 6 30
Si 22 2 20
Si 24 16 20
Si 14 0 18
Si 6 26 26
Si 14 22 28
Si 6 26 14
Si 0 14 20
Si 22 28 18
Si 18 14 20
Si 30 0 2
Si 0 14 2
Si 20 0 0
Si 4 20 28
Si 30 4 0
Si 30 22 30
Si 30 10 24
Si 22 14 16
Si 14 6 4
Si 8 8 20
Si 32 30 22
Si 12 30 32
Si 6 26 22
Si 14 20 26
Si 30 26 20
Si 12 4 24
Si 32 26 6
Si 28 10 18
Si 8 4 30
Si 14 26 30
Si 28 4 0
Si 24 12 14
Si 24 20 22
Si 18 10 4
Si 2 30 12
Si 24 28 6
Si 2 24 24
Si 18 20 18
Si 30 32 22
Si 12 28 24
Si 22 28 24
Si 28 12 22
Si 28 14 8
Si 24 14 28
Si 6 24 16
Si 2 28 8
Si 32 10 20
Si 20 2 2
Si 16 32 20
Si 22 16 0
Si 8 16 6
Si 10 6 26
Si 6 32 4
Si 4 10 6
Si 16 24 10
Si 16 22 6
Si 22 12 20
Si 0 30 6
Si 8 20 0
Si 26 2 0
Si 14 22 20
Si 6 20 32
Si 4 26 8
Si 32 2 26
Si 6 2 12
Si 30 14 24
Si 14 32 14
Si 4 22 20
Si 24 26 14
Si 2 20 10
Si 2 14 22
Si 30 6 0
Si 0 12 0
Si 18 28 22
Si 12 32 26
Si 18 4 4
Si 32 6 28
Si 26 20 20
Si 10 12 2
Si 2 18 28
Si 0 2 20
Si 12 20 0
Si 10 16 20
Si 18 6 2
Si 12 18 8
Si 14 22 22
Si 14 6 12
Si 18 4 0
Si 2 14 2
Si 12 14 30
Si 18 30 30
Si 28 10 14
Si 6 12 22
Si 16 0 32
Si 26 8 2
Si 16 28 30
Si 28 2 30
Si 22 20 26
Si 16 16 12
Si 6 26 10
Si 18 10 14
Si 24 2 0
Si 10 32 32
Si 12 28 18
Si 12 8 8
Si 28 4 2
Si 4 4 10
Si 10 16 2
Si 4 14 10
Si 32 26 26
Si 10 18 4
Si 22 30 30
Si 4 10 14
Si 32 14 12
Si 4 16 14
Si 10 12 14
Si 30 0 32
Si 14 10 24
Si 2 12 28
Si 20 12 14
Si 18 30 12
Si 6 32 30
Si 12 4 28
Si 0 20 26
Si 32 14 6
Si 12 16 10
Si 12 18 6
Si 10 12 32
Si 28 20 24
Si 26 4 26
Si 28 20 22
Si 10 22 12
Si 26 8 18
Si 2 30 2
Si 24 28 4
Si 8 8 0
Si 26 8 4
Si 32 18 22
Si 14 30 20
Si 0 18 8
Si 10 6 32
Si 0 28 28
Si 22 16 2
Si 2 22 22
Si 10 22 6
Si 24 30 20
Si 26 6 12
Si 0 16 2
Si 24 0 16
Si 16 32 30
Si 22 32 30
Si 30 4 6
Si 8 14 30
Si 10 20 28
Si 32 16 10
Si 4 8 20
Si 12 30 26
Si 20 6 10
Si 14 18 6
Si 24 0 24
Si 26 22 2
Si 16 26 32
Si 18 12 0
Si 0 2 18
Si 24 24 4
Si 32 16 32
Si 24 4 6
Si 12 18 14
Si 20 6 14
Si 6 10 10
Si 24 22 16
Si 26 14 8
Si 32 0 14
Si 26 22 16
Si 4 22 12
Si 6 32 28
Si 30 4 2
Si 2 6 2
Si 18 4 20
Si 28 22 16
Si 32 22 26
Si 16 22 12
Si 6 28 24
Si 6 16 30
Si 6 24 4
Si 8 10 18
Si 16 20 20
Si 16 24 26
Si 18 2 24
Si 10 18 22
Si 28 0 32
Si 8 16 24
Si 8 6 10
Si 24 0 12
Si 6 24 26
Si 26 12 30
Si 6 20 20
Si 32 2 8
Si 6 0 26
Si 16 24 14
Si 20 14 22
Si 14 26 26
Si 12 14 20
Si 2 30 0
Si 32 10 0
Si 26 14 2
Si 22 6 32
Si 10 30 24
Si 32 6 14
Si 2 6 18
Si 14 24 24
Si 30 4 4
Si 18 24 14
Si 24 26 24
Si 30 20 14
Si 6 6 8
Si 8 10 8
Si 32 28 18
Si 28 24 6
Si 8 30 30
Si 32 30 12
Si 2 20 12
Si 30 20 26
Si 10 0 22
Si 20 10 14
Si 0 28 8
Si 0 2 28
Si 14 26 20
Si 2 30 30
Si 18 22 28
Si 26 4 12
Si 24 24 10
Si 6 16 24
Si 14 0 10
Si 24 16 26
Si 4 12 28
Si 2 10 20
Si 12 0 20
Si 6 6 28
Si 10 26 0
Si 26 30 32
Si 28 0 18
Si 12 16 0
Si 24 20 10
Si 16 10 30
Si 8 0 12
Si 18 14 28
Si 26 18 18
Si 2 8 14
Si 22 22 16
Si 4 4 24
Si 18 18 24
Si 6 26 32
Si 16 14 2
Si 18 22 2
Si 14 30 32
Si 14 6 24
Si 2 0 16
Si 16 24 16
Si 14 8 22
Si 32 24 32
Si 10 20 26
Si 4 26 10
Si 14 6 28
Si 8 28 18
Si 10 4 18
Si 4 12 32
Si 6 30 10
Si 24 8 24
Si 12 2 10
Si 10 2 20
Si 18 20 24
Si 24 12 20
Si 6 16 8
Si 26 2 32
Si 26 26 0
Si 0 18 2
Si 6 22 26
Si 8 16 20
Si 32 18 26
Si 14 8 2
Si 8 28 28
Si 22 24 14
Si 2 22 14
Si 10 28 10
Si 16 18 8
Si 16 14 30
Si 30 2 30
Si 26 28 20
Si 16 6 20
Si 28 0 12
Si 24 0 8
Si 0 12 32
Si 30 30 14
Si 10 18 0
Si 16 20 26
Si 16 6 24
Si 30 0 22
Si 26 26 22
Si 26 0 26
Si 24 18 28
Si 18 6 30
O 26 16 20
 O 22 0 6
 O 24 10 26
 O 16 10 32
 O 10 8 24
 O 10 16 32
 O 20 28 26
 O 16 12 14
 O 32 4 0
 O 4 28 30
 O 30 32 12
 O 22 4 22
 O 8 24 30
 O 18 12 20
 O 14 20 4
 O 32 6 22
 O 26 12 0
 O 30 10 26
 O 28 18 8
 O 6 26 4
 O 16 6 32
 O 4 12 10
 O 22 6 0
 O 32 16 18
 O 12 16 30
 O 14 2 10
 O 10 4 0
 O 24 30 24
 O 2 2 30
 O 16 16 28
 O 8 30 22
 O 2 30 10
 O 24 30 16
 O 14 22 30
 O 12 4 12
 O 6 26 20
 O 24 24 22
 O 6 6 16
 O 6 8 2
 O 2 18 18
 O 26 18 16
 O 26 18 24
 O 0 26 6
 O 0 4 32
 O 18 6 24
 O 0 20 14
 O 12 22 22
 O 28 16 6
 O 0 26 12
 O 14 16 4
 O 22 30 32
 O 10 28 8
 O 10 18 6
 O 2 0 26
 O 16 22 4
 O 32 20 8
 O 30 32 16
 O 8 4 18
 O 8 22 10
 O 12 0 10
 O 24 28 16
 O 22 12 30
 O 22 14 30
 O 0 30 8
 O 12 8 26
 O 28 28 18
 O 2 32 12
 O 6 24 18
 O 4 12 26
 O 4 22 32
 O 2 16 6
 O 24 26 2
 O 0 4 14
 O 2 22 20
 O 6 32 20
 O 18 2 0
 O 24 32 4
 O 4 2 26
 O 30 8 22
 O 28 0 4
 O 30 4 18
 O 0 10 24
 O 24 10 30
 O 22 28 8
 O 22 2 0
 O 8 6 26
 O 0 16 4
 O 22 24 4
 O 4 32 8
 O 0 32 16
 O 24 10 24
 O 4 2 28
 O 20 28 28
 O 18 10 12
 O 0 4 6
 O 0 24 18
 O 12 6 20
 O 14 26 18
 O 20 20 12
 O 0 0 22
 O 10 30 0
 O 30 32 18
 O 16 12 0
 O 12 0 30
 O 2 10 32
 O 18 2 12
 O 20 16 32
 O 24 14 32
 O 24 28 10
 O 22 16 10
 O 12 10 30
 O 14 14 10
 O 26 20 2
 O 12 22 30
 O 12 22 16
 O 14 6 30
 O 12 22 6
 O 14 24 30
 O 12 28 32
 O 18 8 18
 O 6 2 32
 O 2 24 12
 O 26 30 8
 O 10 8 28
 O 0 26 16
 O 12 6 12
 O 14 12 18
 O 4 32 2
 O 22 4 32
 O 16 10 16
 O 2 32 10
 O 30 2 12
 O 14 14 20
 O 26 26 8
 O 20 6 0
 O 10 30 26
 O 6 8 20
 O 16 4 30
 O 10 0 32
 O 14 14 22
 O 10 30 8
 O 20 14 32
 O 26 12 6
 O 16 32 18
 O 26 22 12
 O 10 24 28
 O 6 22 30
 O 24 6 32
 O 26 12 28
 O 18 18 4
 O 2 12 4
 O 28 16 0
 O 8 26 0
 O 24 12 26
 O 28 26 20
 O 26 22 10
 O 4 20 26
 O 32 0 6
 O 4 2 32
 O 6 20 30
 O 32 4 28
 O 32 2 20
 O 16 18 24
 O 2 30 16
 O 0 2 30
 O 16 10 14
 O 10 14 6
 O 6 14 26
 O 30 16 12
 O 20 28 22
 O 32 0 30
 O 26 20 4
 O 26 20 26
 O 30 32 24
 O 10 22 0
 O 24 22 28
 O 30 12 4
 O 22 18 8
 O 14 22 26
 O 24 20 20
 O 22 28 0
 O 4 24 22
 O 18 24 18
 O 2 14 18
 O 26 8 8
 O 12 2 0
 O 22 14 4
 O 22 0 24
 O 12 6 8
 O 14 6 8
 O 14 28 22
 O 6 18 16
 O 18 4 14
 O 22 22 20
 O 28 26 2
 O 32 2 18
 O 22 24 18
 O 30 0 8
 O 24 28 30
 O 30 12 16
 O 0 8 14
 O 20 2 16
 O 16 8 28
 O 16 6 16
 O 32 32 8
 O 24 14 6
 O 16 4 20
 O 6 14 4
 O 8 18 10
 O 14 18 22
 O 2 24 28
 O 24 22 22
 O 6 18 24
 O 26 24 14
 O 28 18 14
 O 18 22 10
 O 14 0 24
 O 26 2 20
 O 10 4 12
 O 4 14 32
 O 30 16 8
 O 30 6 22
 O 22 14 6
 O 16 16 2
 O 12 24 26
 O 6 18 18
 O 14 8 14
 O 18 0 26
 O 30 22 18
 O 12 32 10
 O 8 30 0
 O 24 0 26
 O 8 32 24
 O 6 26 6
 O 2 2 24
 O 20 16 18
 O 24 4 12
 O 22 4 26
 O 16 6 12
 O 20 0 10
 O 12 30 16
 O 16 0 16
 O 26 12 22
 O 8 2 2
 O 4 10 26
 O 12 8 12
 O 4 4 28
 O 14 10 0
 O 24 10 18
 O 28 4 16
 O 22 16 12
 O 10 14 18
 O 20 20 24
 O 2 12 30
 O 20 14 16
 O 12 20 20
 O 26 12 12
 O 26 8 12
 O 24 6 26
 O 8 10 20
 O 12 20 8
 O 28 30 26
 O 24 30 4
 O 4 22 16
 O 22 16 28
 O 0 14 26
 O 20 8 8
 O 24 4 20
 O 16 12 20
 O 2 22 26
 O 4 24 32
 O 4 32 0
 O 20 32 2
 O 16 18 28
 O 18 26 28
 O 18 32 4
 O 4 4 12
 O 30 10 16
 O 20 30 32
 O 16 18 4
 O 30 30 26
 O 16 30 0
 O 0 16 0
 O 0 0 2
 O 16 0 12
 O 30 4 26
 O 16 16 4
 O 0 4 24
 O 18 26 30
 O 24 6 24
 O 0 22 0
 O 32 4 18
 O 2 30 8
 O 2 20 22
 O 20 28 18
 O 28 10 8
 O 0 22 30
 O 24 20 14
 O 20 6 4
 O 32 2 10
 O 4 4 0
 O 18 10 26
 O 20 28 12
 O 2 16 24
 O 0 8 4
 O 2 24 16
 O 12 30 4
 O 32 24 16
 O 10 22 8
 O 12 22 26
 O 4 12 14
 O 2 10 0
 O 6 18 20
 O 16 22 14
 O 22 14 32
 O 4 24 0
 O 12 18 24
 O 2 6 0
 O 12 26 4
 O 2 0 12
 O 32 22 14
 O 6 22 20
 O 10 2 18
 O 30 12 26
 O 4 20 30
 O 12 18 2
 O 0 10 32
 O 20 12 20
 O 32 12 2
 O 20 12 12
 O 28 24 20
 O 16 32 16
 O 12 14 16
 O 30 32 4
 O 24 26 32
 O 10 10 28
 O 14 10 22
 O 14 16 14
 O 0 24 10
 O 32 32 10
 O 24 6 10
 O 26 4 6
 O 24 12 22
 O 24 30 26
 O 26 28 18
 O 8 4 14
 O 14 8 18
 O 10 24 32
 O 24 4 0
 O 32 12 14
 O 22 16 22
 O 26 14 30
 O 2 0 10
 O 20 16 28
 O 20 16 24
 O 4 2 16
 O 18 14 8
 O 30 16 2
 O 12 18 0
 O 4 10 16
 O 30 12 32
 O 26 0 6
 O 20 8 14
 O 28 18 32
 O 30 32 2
 O 24 10 12
 O 28 4 4
 O 6 8 0
 O 22 22 26
 O 22 12 6
 O 32 12 32
 O 12 12 14
 O 28 24 12
 O 14 4 2
 O 30 20 22
 O 16 2 0
 O 20 26 0
 O 12 20 12
 O 6 4 22
 O 18 14 30
 O 2 20 32
 O 2 26 30
 O 30 10 20
 O 26 12 32
 O 18 4 22
 O 30 20 30
 O 0 2 10
 O 20 2 24
 O 10 28 30
 O 2 12 18
 O 10 10 10
 O 24 6 4
 O 16 0 26
 O 28 20 6
 O 20 28 16
 O 32 20 2
 O 26 14 18
 O 22 18 12
 O 12 26 8
 O 16 32 32
 O 26 6 6
 O 26 16 30
 O 32 30 30
 O 10 14 32
 O 22 20 14
 O 2 22 32
 O 16 18 30
 O 2 10 2
 O 2 4 10
 O 12 30 14
 O 20 2 0
 O 14 10 16
 O 32 22 22
 O 2 26 24
 O 20 4 28
 O 16 18 20
 O 12 4 6
 O 8 24 12
 O 12 2 30
 O 30 14 10
 O 14 30 14
 O 20 0 28
 O 2 12 6
 O 28 14 22
 O 8 16 26
 O 16 30 22
 O 2 16 4
 O 16 18 6
 O 0 28 22
 O 26 4 30
 O 16 28 6
 O 28 22 14
 O 8 18 12
 O 24 2 14
 O 30 28 0
 O 8 30 10
 O 22 10 30
 O 26 6 8
 O 8 8 32
 O 26 30 14
 O 30 30 20
 O 6 30 2
 O 32 12 10
 O 10 26 24
 O 14 6 22
 O 22 32 8
 O 10 10 22
 O 2 28 2
 O 30 20 20
 O 2 32 4
 O 28 28 22
 O 26 24 16
 O 32 14 28
 O 14 2 30
 O 10 24 8
 O 16 4 8
 O 14 26 2
 O 2 26 20
 O 6 32 2
 O 26 14 0
 O 8 26 8
 O 26 32 0
 O 28 14 14
 O 24 28 32
 O 20 26 24
 O 16 22 10
 O 4 20 14
 O 4 6 22
 O 28 30 10
 O 0 16 16
 O 8 8 2
 O 22 28 4
 O 14 24 14
 O 30 32 20
 O 6 2 10
 O 28 2 10
 O 28 20 32
 O 28 4 18
 O 8 0 16
 O 16 30 2
 O 30 2 10
 O 4 4 32
 O 2 10 30
 O 32 16 22
 O 20 18 12
 O 10 24 12
 O 28 16 26
 O 8 20 30
 O 14 6 14
 O 8 32 8
 O 32 10 32
 O 24 24 8
 O 4 10 2
 O 10 2 12
 O 10 26 10
 O 6 8 12
 O 10 26 2
 O 2 8 10
 O 26 20 22
 O 18 2 18
 O 0 18 18
 O 30 10 4
 O 20 24 6
 O 6 6 4
 O 30 14 2
 O 10 18 28
 O 24 14 4
 O 18 20 20
 O 28 30 12
 O 30 28 20
 O 16 28 12
 O 4 20 22
 O 4 30 30
 O 26 8 10
 O 16 26 0
 O 16 12 2
 O 0 20 28
 O 14 20 12
 O 24 14 10
 O 12 8 0
 O 20 28 10
 O 0 6 22
 O 18 10 18
 O 18 8 6
 O 14 30 18
 O 8 2 0
 O 22 26 28
 O 28 0 0
 O 8 4 20
 O 2 20 4
 O 0 2 14
 O 8 22 8
 O 30 24 4
 O 26 20 6
 O 6 6 10
 O 12 24 22
 O 10 0 10
 O 6 2 0
 O 30 26 26
 O 18 4 2
 O 4 0 14
 O 30 22 8
 O 22 12 18
 O 22 0 4
 O 30 6 10
 O 0 12 30
 O 22 6 22
 O 24 4 30
 O 12 26 20
 O 4 8 14
 O 32 20 20
 O 24 8 26
 O 4 8 26
 O 10 32 20
 O 0 30 20
 O 18 30 10
 O 20 8 26
 O 20 14 0
 O 32 24 10
 O 20 14 20
 O 6 6 24
 O 10 24 26
 O 26 0 8
 O 10 24 14
 O 10 32 22
 O 4 10 18
 O 30 6 6
 O 22 2 30
 O 12 16 26
 O 12 24 6
 O 28 10 10
 O 26 10 32
 O 16 14 8
 O 32 2 28
 O 0 32 18
 O 16 30 4
 O 14 12 24
 O 12 24 30
 O 12 10 4
 O 32 26 8
 O 22 32 32
 O 14 2 16
 O 12 10 8
 O 2 10 6
 O 32 16 30
 O 0 22 22
 O 20 12 18
 O 20 0 30
 O 28 10 26
 O 30 24 6
 O 26 28 32
 O 10 28 28
 O 2 28 0
 O 2 30 20
 O 0 30 10
 O 8 18 32
 O 18 14 12
 O 24 32 22
 O 8 6 4
 O 28 14 18
 O 8 22 18
 O 16 2 16
 O 12 28 20
 O 18 28 8
 O 30 22 4
 O 16 0 28
 O 4 28 18
 O 30 6 4
 O 16 32 14
 O 12 2 8
 O 22 8 24
 O 14 30 16
 O 0 18 26
 O 2 0 24
 O 2 4 24
 O 8 20 8
 O 6 2 2
 O 6 22 22
 O 6 10 22
 O 6 20 24
 O 6 0 32
 O 26 4 14
 O 12 28 2
 O 14 20 6
 O 24 0 32
 O 18 6 12
 O 26 26 6
 O 2 18 10
 O 14 2 26
 O 2 32 2
 O 16 6 28
 O 6 4 8
 O 6 2 14
 O 32 8 10
 O 0 32 0
 O 0 6 24
 O 6 22 2
 O 4 22 14
 O 32 32 4
 O 8 12 26
 O 6 24 28
 O 0 22 4
 O 10 0 6
 O 14 30 6
 O 22 12 0
 O 22 0 18
 O 22 10 20
 O 28 18 28
 O 20 22 24
 O 4 28 6
 O 18 20 10
 O 30 0 14
 O 32 24 6
 O 20 12 4
 O 28 0 20
 O 2 4 16
 O 4 30 14
 O 28 4 10
 O 8 4 6
 O 10 22 30
 O 24 2 16
 O 20 28 6
 O 30 30 6
 O 28 30 24
 O 10 14 14
 O 14 10 20
 O 14 22 18
 O 6 22 6
 O 4 6 28
 O 20 30 8
 O 32 32 16
 O 10 6 20
 O 22 6 2
 O 8 20 20
 O 28 18 2
 O 8 24 24
 O 8 16 2
 O 0 20 32
 O 16 4 2
 O 8 14 18
 O 18 10 24
 O 10 18 32
 O 16 0 8
 O 16 0 4
 O 0 10 4
 O 6 18 28
 O 14 6 16
 O 8 22 20
 O 4 32 18
 O 2 0 28
 O 4 0 32
 O 8 0 4
 O 20 12 16
 O 26 8 28
 O 32 14 4
 O 2 30 14
 O 16 6 22
 O 32 4 2
 O 2 16 22
 O 26 4 8
 O 10 16 10
 O 32 30 0
 O 32 14 32
 O 22 24 32
 O 28 16 32
 O 20 2 14
 O 8 18 18
 O 28 8 28
 O 8 20 2
 O 14 22 6
 O 6 12 2
 O 32 26 22
 O 8 30 20
 O 6 28 0
 O 32 10 4
 O 14 18 2
 O 6 20 2
 O 18 32 12
 O 18 18 14
 O 20 2 18
 O 28 12 14
 O 24 24 26
 O 18 22 12
 O 16 28 8
 O 6 20 22
 O 2 18 14
 O 26 20 14
 O 4 12 12
 O 20 12 10
 O 24 16 4
 O 22 18 30
 O 4 0 10
 O 16 2 22
 O 10 12 26
 O 22 32 6
 O 24 18 32
 O 22 16 30
 O 30 8 2
 O 22 22 0
 O 2 24 6
 O 14 2 4
 O 28 28 20
 O 0 20 4
 O 0 16 20
 O 22 30 12
 O 18 4 8
 O 8 4 28
 O 14 28 12
 O 6 28 10
 O 30 32 6
 O 28 22 28
 O 20 12 32
 O 10 24 6
 O 32 20 10
 O 18 28 24
 O 8 8 4
 O 16 26 10
 O 20 8 18
 O 30 26 32
 O 16 22 26
 O 32 18 20
 O 30 28 8
 O 4 16 30
 O 26 32 14
 O 18 16 8
 O 22 4 20
 O 32 12 20
 O 0 2 24
 O 20 30 12
 O 10 20 18
 O 30 0 20
 O 22 12 14
 O 14 20 18
 O 12 30 10
 O 6 16 16
 O 20 22 18
 O 24 16 32
 O 30 0 26
 O 16 10 10
 O 4 6 12
 O 14 22 32
 O 10 32 2
 O 6 32 10
 O 28 22 32
 O 30 18 20
 O 32 6 10
 O 24 30 18
 O 20 10 26
 O 26 14 10
 O 12 4 4
 O 10 20 22
 O 8 2 18
 O 2 14 10
 O 24 2 26
 O 6 20 16
 O 4 6 0
 O 30 28 22
 O 8 32 6
 O 30 24 12
 O 2 30 4
 O 0 20 18
 O 10 24 0
 O 14 10 10
 O 8 20 22
 O 28 18 20
 O 26 2 12
 O 0 0 24
 O 6 8 26
 O 0 6 0
 O 2 10 4
 O 16 16 8
 O 14 4 30
 O 14 30 26
 O 10 8 4
 O 8 12 20
 O 16 26 26
 O 18 32 14
 O 16 2 14
 O 10 20 20
 O 2 20 28
 O 28 18 4
 O 18 30 6
 O 16 6 30
 O 26 10 26
 O 26 18 6
 O 30 0 0
 O 30 22 26
 O 6 0 10
 O 30 8 18
 O 32 10 16
 O 2 12 26
 O 26 14 4
 O 4 0 12
 O 28 28 4
 O 20 32 26
 O 12 22 24
 O 28 16 10
 O 18 30 26
 O 20 10 6
 O 18 18 32
 O 24 6 12
 O 28 0 10
 O 6 20 10
 O 22 32 22
 O 28 16 8
 O 12 28 28
 O 22 18 26
 O 28 30 30
 O 28 2 16
 O 2 2 18
 O 14 26 0
 O 10 22 4
 O 30 8 30
 O 12 24 2
 O 22 26 24
 O 4 16 16
 O 14 6 0
 O 12 20 18
 O 4 26 32
 O 16 2 8
 O 22 8 30
 O 20 8 2
 O 32 14 16
 O 16 6 10
 O 22 0 10
 O 12 10 16
 O 4 4 30
 O 32 22 6
 O 14 32 30
 O 14 2 6
 O 20 14 24
 O 22 30 24
 O 4 4 26
 O 24 2 24
 O 28 26 32
 O 22 20 8
 O 20 14 28
 O 24 30 0
 O 0 6 18
 O 14 18 12
 O 26 6 2
 O 8 8 30
 O 6 24 10
 O 4 20 4
 O 24 12 10
 O 14 20 32
 O 6 28 30
 O 30 28 24
 O 28 18 10
 O 10 4 20
 O 12 32 2
 O 4 2 6
 O 6 10 20
 O 12 12 2
 O 20 30 10
 O 24 10 32
 O 16 22 24
 O 12 30 30
 O 24 10 0
 O 26 6 30
 O 18 16 26
 O 8 2 30
 O 28 2 18
 O 8 8 8
 O 2 4 32
 O 24 6 6
 O 16 14 28
 O 12 26 16
 O 26 14 32
 O 30 10 0
 O 26 24 8
 O 10 14 28
 O 24 0 20
 O 4 18 30
 O 18 2 28
 O 6 18 8
 O 26 14 16
 O 26 20 24
 O 6 20 12
 O 22 10 4
 O 26 6 32
 O 20 32 8
 O 30 18 26
 O 32 16 14
 O 18 0 16
 O 22 24 20
 O 28 22 8
 O 0 0 0
 O 4 16 32
 O 20 8 0
 O 2 12 2
 O 14 12 32
 O 4 24 16
 O 4 22 10
 O 2 6 28
 O 32 0 16
 O 6 14 16
 O 32 2 32
 O 12 16 16
 O 4 10 0
 O 4 26 4
 O 32 24 26
 O 20 4 14
 O 28 24 10
 O 20 30 6
 O 24 22 2
 O 18 32 16
 O 18 24 2
 O 0 6 16
 O 26 2 26
 O 28 30 22
 O 10 22 22
 O 14 24 2
 O 30 0 10
 O 12 10 2
 O 4 26 30
 O 20 4 22
 O 18 6 32
 O 2 10 26
 O 24 12 32
 O 22 22 24
 O 4 26 28
 O 12 12 26
 O 12 24 32
 O 28 24 26
 O 30 10 28
 O 32 22 28
 O 22 20 32
 O 16 26 6
 O 16 14 32
 O 10 16 4
 O 18 6 14
 O 22 32 0
 O 0 16 28
 O 0 14 18
 O 0 30 32
 O 18 10 20
 O 10 6 30
 O 20 8 12
 O 4 18 10
 O 14 2 2
 O 22 22 8
 O 28 8 14
 O 16 30 18
 O 18 12 28
 O 0 30 30
 O 16 26 20
 O 2 22 8
 O 26 24 20
 O 8 0 8
 O 12 24 10
 O 14 22 14
 O 30 8 8
 O 8 12 30
 O 30 12 6
 O 16 24 20
 O 6 26 30
 O 2 24 32
 O 20 6 2
 O 14 24 6
 O 6 8 4
 O 2 8 6
 O 2 26 18
 O 14 10 32
 O 26 16 16
 O 12 32 28
 O 24 2 6
 O 30 14 32
 O 32 4 32
 O 0 26 10
 O 10 4 14
 O 26 28 22
 O 12 6 32
 O 12 22 4
 O 10 4 10
 O 8 14 20
 O 28 32 8
 O 26 8 30
 O 18 28 12
 O 10 32 6
 O 0 8 26
 O 6 8 10
 O 0 18 20
 O 26 0 10
 O 20 20 30
 O 10 14 22
 O 28 18 22
 O 2 10 8
 O 18 2 22
 O 24 8 6
 O 12 8 28
 O 14 0 14
 O 2 8 20
 O 30 6 18
 O 2 16 26
 O 0 10 14
 O 28 14 6
 O 12 24 12
 O 10 16 26
 O 12 0 0
 O 18 6 4
 O 30 4 10
 O 14 22 16
 O 10 8 18
 O 8 14 2
 O 14 18 18
 O 8 30 16
 O 26 6 18
 O 8 32 0
 O 22 22 10
 O 22 4 18
 O 12 32 20
 O 18 18 30
 O 14 0 26
 O 8 20 12
 O 6 0 8
 O 2 12 14
 O 8 24 22
 O 22 2 18
 O 0 12 4
 O 10 0 28
 O 20 2 4
 O 16 6 14
 O 10 2 26
 O 28 16 14
 O 0 24 0
 O 16 0 22
 O 10 32 18
 O 16 24 0
 O 28 12 12
 O 24 0 28
 O 6 28 18
 O 10 22 26
 O 20 28 2
 O 32 10 12
 O 30 8 6
 O 18 32 22
 O 14 0 12
 O 24 32 10
 O 28 6 16
 O 28 18 24
 O 10 30 30
 O 6 6 12
 O 2 4 12
 O 4 32 6
 O 32 18 0
 O 22 10 24
 O 22 20 12
 O 10 10 26
 O 24 20 4
 O 26 18 10
 O 24 12 18
 O 0 18 22
 O 0 0 6
 O 22 10 16
 O 20 4 30
 O 12 14 18
 O 8 22 14
 O 22 12 32
 O 6 16 20
 O 10 26 8
 O 6 2 22
 O 0 24 26
 O 18 18 6
 O 18 0 8
 O 10 28 14
 O 16 8 22
 O 20 4 10
 O 0 0 30
 O 16 20 30
 O 24 18 8
 O 8 16 16
 O 22 14 28
 O 14 4 32
 O 18 16 2
 O 10 2 10
 O 26 32 32
 O 26 26 4
 O 4 26 12
 O 12 4 10
 O 4 22 22
 O 0 26 26
 O 10 8 16
 O 0 28 0
 O 30 24 16
 O 8 6 6
 O 0 2 0
 O 28 20 14
 O 4 12 24
 O 8 14 24
 O 0 22 20
 O 6 20 26
 O 20 2 12
 O 16 14 12
 O 16 26 22
 O 4 0 16
 O 4 8 4
 O 24 24 30
 O 28 16 30
 O 10 26 14
 O 4 32 30
 O 6 28 8
 O 30 0 6
 O 28 12 26
 O 20 2 6
 O 14 26 10
 O 22 20 30
 O 6 14 24
 O 12 20 24
 O 22 12 8
 O 10 24 22
 O 4 16 20
 O 8 8 10
 O 0 12 14
 O 22 32 18
 O 4 20 0
 O 22 10 22
 O 4 30 22
 O 18 24 8
 O 2 28 32
 O 20 22 20
 O 18 8 10
 O 30 28 14
 O 10 20 14
 O 16 2 26
 O 10 24 16
 O 14 18 30
 O 2 24 2
 O 12 20 6
 O 8 10 6
 O 14 20 10
 O 4 22 18
 O 26 4 28
 O 16 2 24
 O 18 30 16
 O 26 12 26
 O 14 6 10
 O 2 6 24
 O 0 6 32
 O 18 12 4
 O 0 8 22
 O 0 4 26
 O 10 10 30
 O 26 6 24
 O 2 6 14
 O 0 6 6
 O 26 0 20
 O 32 8 26
 O 16 0 6
 O 0 30 12
 O 8 10 26
 O 26 16 6
 O 12 20 30
 O 2 22 28
 O 14 14 2
 O 22 30 6
 O 16 14 20
 O 10 16 18
 O 8 30 28
 O 22 18 4
 O 6 32 22
 O 22 8 8
 O 16 28 18
 O 16 0 2
 O 16 8 20
 O 22 4 28
 O 32 30 24
 O 32 30 32
 O 14 0 32
 O 10 20 32
 O 2 18 16
 O 6 16 4
 O 4 26 24
 O 6 4 4
 O 18 14 14
 O 32 10 6
 O 18 4 32
 O 4 12 18
 O 8 16 8
 O 6 12 14
 O 10 12 12
 O 26 32 20
 O 8 6 0
 O 32 30 2
 O 32 30 8
 O 32 22 12
 O 6 26 18
 O 18 20 14
 O 2 26 26
 O 10 12 0
 O 22 16 16
 O 12 30 22
 O 26 32 28
 O 0 22 26
 O 4 2 10
 O 24 10 28
 O 20 18 20
 O 6 24 0
 O 30 30 22
 O 10 28 12
 O 8 14 32
 O 28 8 8
 O 4 32 22
 O 0 4 16
 O 4 32 32
 O 18 32 26
 O 2 14 0
 O 8 12 32
 O 10 12 4
 O 28 6 32
 O 12 14 26
 O 0 28 24
 O 6 8 8
 O 22 26 30
 O 4 20 18
 O 0 4 2
 O 10 12 22
 O 0 8 0
 O 22 30 14
 O 28 12 10
 O 8 18 2
 O 0 32 2
 O 18 0 32
 O 32 22 0
 O 16 22 0
 O 2 22 10
 O 30 8 10
 O 0 10 30
 O 26 26 10
 O 12 30 28
 O 26 26 14
 O 12 2 6
 O 14 8 10
 O 6 28 12
 O 18 12 22
 O 18 22 16
 O 4 22 24
 O 22 14 12
 O 30 4 22
 O 6 20 8
 O 28 24 4
 O 26 22 0
 O 6 16 6
 O 2 0 4
 O 2 2 14
 O 20 30 24
 O 28 20 2
 O 4 28 28
 O 0 6 26
 O 22 28 14
 O 0 4 0
 O 22 20 6
 O 30 22 12
 O 18 20 28
 O 22 22 6
 O 28 22 22
 O 32 32 2
 O 4 24 8
 O 8 12 4
 O 20 24 24
 O 10 14 0
 O 28 20 30
 O 10 26 6
 O 2 6 32
 O 6 28 22
 O 12 24 18
 O 8 32 32
 O 24 2 18
 O 20 16 10
 O 20 20 26
 O 28 8 20
 O 8 24 0
 O 16 16 30
 O 6 10 16
 O 28 0 26
 O 8 4 4
 O 18 4 12
 O 10 18 10
 O 4 6 16
 O 14 10 28
 O 20 26 16
 O 8 2 16
 O 10 16 22
 O 22 4 14
 O 30 24 8
 O 24 28 20
 O 24 8 20
 O 22 0 2
 O 12 18 16
 O 32 4 26
 O 16 26 30
 O 32 14 20
 O 20 14 4
 O 6 0 24
 O 24 28 14
 O 32 32 20
 O 8 10 4
 O 20 20 0
 O 14 10 12
 O 8 24 26
 O 12 26 14
 O 0 2 8
 O 14 20 2
 O 0 10 8
 O 14 24 28
 O 12 12 28
 O 22 4 0
 O 12 8 10
 O 12 14 24
 O 26 8 0
 O 16 28 26
 O 22 26 20
 O 6 20 28
 O 30 28 18
 O 6 28 6
 O 16 30 32
 O 0 16 24
 O 4 8 28
 O 16 12 12
 O 14 22 10
 O 6 30 30
 O 30 24 24
 O 12 12 8
 O 10 30 4
 O 14 4 0
 O 10 4 2
 O 28 0 6
 O 12 0 2
 O 16 26 28
 O 14 4 22
 O 0 18 14
 O 30 32 32
 O 18 22 6
 O 30 2 32
 O 24 20 26
 O 6 8 14
 O 30 12 0
 O 24 6 22
 O 16 28 0
 O 32 6 32
 O 28 30 2
 O 0 8 30
 O 28 20 12
 O 12 0 28
 O 30 2 0
 O 14 22 24
 O 16 14 16
 O 4 8 12
 O 2 8 26
 O 6 28 16
 O 26 32 22
 O 4 0 20
 O 2 32 6
 O 14 12 20
 O 8 22 24
 O 2 12 10
 O 28 22 4
 O 6 8 30
 O 28 14 30
 O 6 0 2
 O 14 18 28
 O 16 12 18
 O 28 22 18
 O 10 16 6
 O 4 0 26
 O 12 12 12
 O 6 0 6
 O 10 12 18
 O 20 6 30
 O 26 18 22
 O 22 24 6
 O 20 14 2
 O 18 24 0
 O 22 26 12
 O 10 32 12
 O 12 26 0
 O 30 4 12
 O 32 30 18
 O 32 16 12
 O 4 20 16
 O 8 14 0
 O 14 30 12
 O 18 12 16
 O 10 14 20
 O 12 6 18
 O 30 20 32
 O 22 32 4
 O 14 20 20
 O 6 18 2
 O 0 22 12
 O 24 28 28
 O 24 28 22
 O 32 2 22
 O 22 20 0
 O 2 28 30
 O 18 12 2
 O 32 8 6
 O 10 8 8
 O 20 10 8
 O 14 20 14
 O 24 6 28
 O 0 14 22
 O 24 16 12
 O 6 10 14
 O 22 24 10
 O 22 24 12
 O 16 24 22
 O 20 0 26
 O 6 6 26
 O 24 16 2
 O 26 20 32
 O 32 6 18
 O 4 18 32
 O 6 4 24
 O 6 22 0
 O 12 14 10
 O 4 32 4
 O 28 20 20
 O 10 6 18
 O 18 0 10
 O 8 0 22
 O 2 0 2
 O 8 8 16
 O 18 0 18
 O 26 18 20
 O 14 8 20
 O 20 6 24
 O 20 28 14
 O 4 30 18
 O 16 32 12
 O 32 10 8
 O 24 16 10
 O 16 26 16
 O 16 28 10
 O 32 14 24
 O 24 0 2
 O 2 28 28
 O 20 2 22
 O 22 20 10
 O 32 32 32
 O 0 24 32
 O 20 28 0
 O 30 4 16
 O 12 2 22
 O 4 8 30
 O 20 22 26
 O 14 24 8
 O 18 22 32
 O 4 10 32
 O 18 10 16
 O 18 24 16
 O 2 16 14
 O 26 26 28
 O 20 10 4
 O 0 20 24
 O 20 24 20
 O 30 2 8
 O 4 30 24
 O 4 14 8
 O 22 26 22
 O 30 0 24
 O 10 30 12
 O 6 32 32
 O 4 32 28
 O 24 6 30
 O 30 2 20
 O 26 26 18
 O 2 18 6
 O 0 8 6
 O 30 28 28
 O 2 32 18
 O 30 18 10
 O 24 28 0
 O 10 2 8
 O 12 18 10
 O 24 30 22
 O 4 14 20
 O 18 18 18
 O 10 30 10
 O 24 26 16
 O 22 24 8
 O 14 4 24
 O 24 10 22
 O 28 8 2
 O 32 6 0
 O 14 14 8
 O 6 30 24
 O 22 0 14
 O 12 4 30
 O 26 20 30
 O 0 22 28
 O 28 0 28
 O 4 20 20
 O 24 32 12
 O 0 10 28
 O 16 16 0
 O 0 20 6
 O 16 0 14
 O 32 20 16
 O 14 16 24
 O 12 4 26
 O 18 26 10
 O 6 22 28
 O 32 24 12
 O 2 18 24
 O 12 12 0
 O 16 22 20
 O 6 20 14
 O 20 6 18
 O 20 14 12
 O 28 10 28
 O 8 24 16
 O 20 18 14
 O 32 28 8
 O 4 16 22
 O 0 6 12
 O 18 0 24
 O 14 28 6
 O 20 18 26
 O 8 6 16
 O 6 10 26
 O 10 20 4
 O 8 24 4
 O 28 12 18
 O 16 28 24
 O 4 20 32
 O 4 28 22
 O 20 6 12
 O 28 20 16
 O 16 2 20
 O 14 10 8
 O 20 20 4
 O 28 18 12
 O 0 2 6
 O 20 8 10
 O 8 10 22
 O 6 30 26
 O 30 24 18
 O 28 2 20
 O 6 28 26
 O 30 4 20
 O 30 6 24
 O 22 22 18
 O 30 2 4
 O 12 8 20
 O 20 18 22
 O 16 4 28
 O 26 16 8
 O 12 14 32
 O 6 30 20
 O 16 18 22
 O 32 0 8
 O 32 0 28
 O 4 20 6
 O 8 4 0
 O 14 24 20
 O 8 30 14
 O 14 22 12
 O 4 4 20
 O 16 10 8
 O 20 24 28
 O 22 18 6
 O 2 30 6
 O 26 30 16
 O 16 10 22
 O 20 4 18
 O 14 12 0
 O 16 18 18
 O 6 10 2
 O 14 8 26
 O 30 0 12
 O 4 16 18
 O 10 2 30
 O 6 22 24
 O 18 6 16
 O 16 10 4
 O 28 30 14
 O 2 32 32
 O 20 30 16
 O 26 22 20
 O 24 18 26
 O 18 4 26
 O 8 24 18
 O 20 6 6
 O 10 30 6
 O 32 14 10
 O 24 18 20
 O 14 32 26
 O 4 14 6
 O 0 14 16
 O 8 8 26
 O 24 28 18
 O 20 28 20
 O 22 8 6
 O 20 32 32
 O 8 30 8
 O 32 10 18
 O 16 32 2
 O 32 26 20
 O 32 30 26
 O 32 8 8
 O 2 26 22
 O 4 4 2
 O 30 22 32
 O 6 24 14
 O 4 28 2
 O 28 28 10
 O 8 6 22
 O 28 2 14
 O 32 2 16
 O 22 2 24
 O 16 12 6
 O 14 16 20
 O 4 18 24
 O 8 2 6
 O 28 2 0
 O 26 28 12
 O 14 12 30
 O 2 8 12
 O 20 30 28
 O 2 32 0
 O 18 14 32
 O 10 14 26
 O 24 18 16
 O 6 12 32
 O 8 8 24
 O 26 28 16
 O 18 32 0
 O 30 14 0
 O 2 8 24
 O 22 8 14
 O 12 32 16
 O 2 0 20
 O 30 16 26
 O 28 26 26
 O 4 24 4
 O 8 14 8
 O 6 0 22
 O 16 8 18
 O 18 16 0
 O 32 20 24
 O 22 32 28
 O 24 2 28
 O 8 0 0
 O 2 26 28
 O 14 22 0
 O 20 22 6
 O 2 12 12
 O 8 14 14
 O 18 22 4
 O 4 18 28
 O 18 2 16
 O 28 6 12
 O 16 22 30
 O 24 8 2
 O 10 10 6
 O 12 32 14
 O 0 26 30
 O 24 8 4
 O 8 26 20
 O 12 12 4
 O 12 22 18
 O 4 22 8
 O 32 14 22
 O 0 8 12
 O 4 14 12
 O 26 18 26
 O 6 30 18
 O 0 16 10
 O 2 26 14
 O 24 26 0
 O 28 6 4
 O 2 2 8
 O 18 28 16
 O 4 32 16
 O 14 2 28
 O 30 30 12
 O 6 2 16
 O 10 2 14
 O 24 22 12
 O 30 10 14
 O 16 4 12
 O 28 8 10
 O 32 0 32
 O 14 16 6
 O 6 24 32
 O 28 32 26
 O 8 20 32
 O 30 26 30
 O 2 4 28
 O 6 4 12
 O 0 18 6
 O 4 14 26
 O 2 28 26
 O 24 26 22
 O 6 14 22
 O 8 0 26
 O 0 0 14
 O 0 14 24
 O 32 24 24
 O 0 18 10
 O 24 6 20
 O 10 16 0
 O 24 6 2
 O 28 22 30
 O 10 20 2
 O 10 0 0
 O 30 18 18
 O 20 2 28
 O 0 12 24
 O 6 16 12
 O 28 22 2
 O 18 26 18
 O 18 26 20
 O 14 28 26
 O 18 0 14
 O 0 30 0
 O 20 4 24
 O 0 12 16
 O 0 24 4
 O 6 4 0
 O 14 28 32
 O 16 24 30
 O 30 6 30
 O 28 18 18
 O 20 6 8
 O 14 14 28
 O 12 6 4
 O 4 6 14
 O 0 2 2
 O 16 20 14
 O 30 28 6
 O 4 10 8
 O 24 16 22
 O 26 14 14
 O 0 10 10
 O 26 10 2
 O 30 8 0
 O 4 12 6
 O 6 14 8
 O 4 26 14
 O 4 28 12
 O 6 8 28
 O 28 2 12
 O 12 2 4
 O 24 24 20
 O 12 12 16
 O 22 26 16
 O 30 24 2
 O 6 12 8
 O 24 22 0
 O 12 26 28
 O 32 10 14
 O 30 22 2
 O 10 32 16
 O 26 24 4
 O 18 8 32
 O 14 18 4
 O 14 2 14
 O 6 22 8
 O 18 32 6
 O 12 28 30
 O 14 10 18
 O 32 0 26
 O 26 20 16
 O 6 6 6
 O 12 2 16
 O 4 4 4
 O 6 6 2
 O 32 28 26
 O 18 16 28
 O 4 24 18
 O 26 24 22
 O 10 2 28
 O 0 28 6
 O 28 30 0
 O 28 4 6
 O 12 4 22
 O 32 2 14
 O 18 28 30
 O 22 6 4
 O 20 6 22
 O 24 4 2
 O 26 6 20
 O 24 32 30
 O 8 16 32
 O 10 12 20
 O 6 12 16
 O 26 4 16
 O 14 2 32
 O 16 16 6
 O 10 20 12
 O 28 18 0
 O 12 10 0
 O 8 32 14
 O 8 8 14
 O 24 2 32
 O 32 26 10
 O 30 20 4
 O 4 18 8
 O 12 14 0
 O 24 14 20
 O 12 4 2
 O 30 10 12
 O 28 32 2
 O 32 8 30
 O 14 10 14
 O 14 32 28
 O 22 16 24
 O 6 0 14
 O 22 4 24
 O 30 2 22
 O 20 20 28
 O 4 2 20
 O 2 0 32
 O 14 24 10
 O 8 16 0
 O 16 26 24
 O 14 12 2
 O 18 20 22
 O 28 8 4
 O 16 20 18
 O 2 26 0
 O 32 12 16
 O 2 2 12
 O 14 12 16
 O 6 12 6
 O 26 8 26
 O 18 4 30
 O 4 10 20
 O 6 2 24
 O 2 32 28
 O 26 16 14
 O 26 20 0
 O 22 26 6
 O 4 16 28
 O 8 26 2
 O 18 28 14
 O 2 10 16
 O 28 10 12
 O 32 22 2
 O 6 8 18
 O 4 16 2
 O 4 18 20
 O 24 30 2
 O 0 4 22
 O 18 20 16
 O 14 20 30
 O 0 10 26
 O 20 12 6
 O 32 8 2
 O 4 28 10
 O 6 30 16
 O 22 2 14
 O 4 2 12
 O 32 22 20
 O 10 22 24
 O 30 26 6
 O 6 10 32
 O 12 12 10
 O 32 4 4
 O 20 10 22
 O 24 10 6
 O 14 8 32
 O 8 18 20
 O 18 8 26
 O 14 8 0
 O 14 20 22
 O 16 6 8
 O 20 14 30
 O 10 28 20
 O 28 12 16
 O 30 24 26
 O 10 4 32
 O 16 22 18
 O 24 20 16
 O 28 6 2
 O 32 8 12
 O 14 2 8
 O 8 28 0
 O 22 14 14
 O 18 32 28
 O 2 12 32
 O 4 18 0
 O 12 14 2
 O 4 12 30
 O 12 2 24
 O 14 12 8
 O 14 4 14
 O 32 24 8
 O 32 18 16
 O 32 18 30
 O 16 10 12
 O 6 24 24
 O 6 2 18
 O 2 10 24
 O 14 26 4
 O 12 30 12
 O 0 32 12
 O 20 30 22
 O 14 32 10
 O 24 0 18
 O 8 30 24
 O 30 18 32
 O 24 0 10
 O 28 14 28
 O 2 18 2
 O 10 0 20
 O 8 26 28
 O 18 22 14
 O 28 24 28
 O 30 22 22
 O 6 6 22
 O 32 24 4
 O 30 20 10
 O 4 30 16
 O 18 28 2
 O 8 10 30
 O 22 28 22
 O 30 16 32
 O 0 2 4
 O 14 0 28
 O 18 32 10
 O 16 8 24
 O 2 2 4
 O 10 12 24
 O 16 22 16
 O 30 4 30
 O 12 22 28
 O 16 12 26
 O 28 16 24
 O 8 28 14
 O 22 32 16
 O 2 20 14
 O 22 18 32
 O 0 26 28
 O 12 2 12
 O 0 18 16
 O 14 28 30
 O 12 10 10
 O 12 18 32
 O 26 12 2
 O 26 28 8
 O 22 14 8
 O 6 4 6
 O 22 20 20
 O 32 26 12
 O 6 18 32
 O 0 4 10
 O 24 16 0
 O 18 12 6
 O 28 10 20
 O 8 6 32
 O 16 26 12
 O 8 6 8
 O 26 32 18
 O 22 28 20
 O 32 20 14
 O 12 6 26
 O 20 10 18
